echo "running cmd for gzip"
./Run.pl -db ./bench.db -dir ./results/gzip_default -benchmark gzip -sim ./ss3/sim-outorder >& ./results/gzip_default.txt
echo "running cmd for vpr"
./Run.pl -db ./bench.db -dir ./results/vpr_default -benchmark vpr -sim ./ss3/sim-outorder >& ./results/vpr_default.txt
echo "running cmd for gcc2k"
./Run.pl -db ./bench.db -dir ./results/gcc2k_default -benchmark gcc2k -sim ./ss3/sim-outorder >& ./results/gcc2k_default.txt
echo "running cmd for mcf"
./Run.pl -db ./bench.db -dir ./results/mcf_default -benchmark mcf -sim ./ss3/sim-outorder >& ./results/mcf_default.txt
echo "running cmd for crafty"
./Run.pl -db ./bench.db -dir ./results/crafty_default -benchmark crafty -sim ./ss3/sim-outorder >& ./results/crafty_default.txt
echo "running cmd for go"
./Run.pl -db ./bench.db -dir ./results/go_default -benchmark go -sim ./ss3/sim-outorder >& ./results/go_default.txt
echo "running cmd for gcc"
./Run.pl -db ./bench.db -dir ./results/gcc_default -benchmark gcc -sim ./ss3/sim-outorder >& ./results/gcc_default.txt
echo "running cmd for m88ksim"
./Run.pl -db ./bench.db -dir ./results/m88ksim_default -benchmark m88ksim -sim ./ss3/sim-outorder >& ./results/m88ksim_default.txt
echo "running cmd for compress"
./Run.pl -db ./bench.db -dir ./results/compress_default -benchmark compress -sim ./ss3/sim-outorder >& ./results/compress_default.txt
echo "running cmd for li"
./Run.pl -db ./bench.db -dir ./results/li_default -benchmark li -sim ./ss3/sim-outorder >& ./results/li_default.txt
echo "running cmd for ijpeg"
./Run.pl -db ./bench.db -dir ./results/ijpeg_default -benchmark ijpeg -sim ./ss3/sim-outorder >& ./results/ijpeg_default.txt
echo "running cmd for perl"
./Run.pl -db ./bench.db -dir ./results/perl_default -benchmark perl -sim ./ss3/sim-outorder >& ./results/perl_default.txt
echo "running cmd for vortex"
./Run.pl -db ./bench.db -dir ./results/vortex_default -benchmark vortex -sim ./ss3/sim-outorder >& ./results/vortex_default.txt
echo "running cmd for tomcatv"
./Run.pl -db ./bench.db -dir ./results/tomcatv_default -benchmark tomcatv -sim ./ss3/sim-outorder >& ./results/tomcatv_default.txt
echo "running cmd for swim"
./Run.pl -db ./bench.db -dir ./results/swim_default -benchmark swim -sim ./ss3/sim-outorder >& ./results/swim_default.txt
echo "running cmd for su2cor"
./Run.pl -db ./bench.db -dir ./results/su2cor_default -benchmark su2cor -sim ./ss3/sim-outorder >& ./results/su2cor_default.txt
echo "running cmd for hydro2d"
./Run.pl -db ./bench.db -dir ./results/hydro2d_default -benchmark hydro2d -sim ./ss3/sim-outorder >& ./results/hydro2d_default.txt
echo "running cmd for mgrid"
./Run.pl -db ./bench.db -dir ./results/mgrid_default -benchmark mgrid -sim ./ss3/sim-outorder >& ./results/mgrid_default.txt
echo "running cmd for applu"
./Run.pl -db ./bench.db -dir ./results/applu_default -benchmark applu -sim ./ss3/sim-outorder >& ./results/applu_default.txt
echo "running cmd for turb3d"
./Run.pl -db ./bench.db -dir ./results/turb3d_default -benchmark turb3d -sim ./ss3/sim-outorder >& ./results/turb3d_default.txt
echo "running cmd for apsi"
./Run.pl -db ./bench.db -dir ./results/apsi_default -benchmark apsi -sim ./ss3/sim-outorder >& ./results/apsi_default.txt
