reading benchmark database ./bench.db
Doing mgrid
Installing mgrid
ln -s /home/greggbyr/common/Documents/MBP_ReCISC/simulator/bench/little/mgrid.ss run.mgrid
Pre-run mgrid
cp /home/greggbyr/common/Documents/MBP_ReCISC/simulator/input/ref/mgrid.* .
cp: cannot stat '/home/greggbyr/common/Documents/MBP_ReCISC/simulator/input/ref/mgrid.*': No such file or directory
Run mgrid
/home/greggbyr/common/Documents/MBP_ReCISC/simulator/ss3/sim-outorder -max:inst 10000000 -bpred 2lev -bpred:2lev 1 1048576 20 1 run.mgrid  < mgrid.in > mgrid.out
sh: 1: cannot open mgrid.in: No such file
****** program returns ERROR 512
Post-run mgrid
rm -f -r mgrid.*
