reading benchmark database ./bench.db
Doing su2cor
Installing su2cor
ln -s /home/greggbyr/common/Documents/MBP_FARS/simulator/bench/little/su2cor.ss run.su2cor
Pre-run su2cor
cp /home/greggbyr/common/Documents/MBP_FARS/simulator/input/ref/su2cor.* . ; cp /home/greggbyr/common/Documents/MBP_FARS/simulator/input/ref/SU2COR.MODEL . 
cp: cannot stat '/home/greggbyr/common/Documents/MBP_FARS/simulator/input/ref/su2cor.*': No such file or directory
cp: cannot stat '/home/greggbyr/common/Documents/MBP_FARS/simulator/input/ref/SU2COR.MODEL': No such file or directory
Run su2cor
/home/greggbyr/common/Documents/MBP_FARS/simulator/ss3/sim-outorder -max:inst 10000000 -bpred mbp -bpred:mbp 1 65536 16 1 run.su2cor  < su2cor.in > su2cor.out
sh: 1: cannot open su2cor.in: No such file
****** program returns ERROR 512
Post-run su2cor
rm -f -r su2cor.* SU2COR.*
