reading benchmark database ./bench.db
Doing wave5
Installing wave5
ln -s /home/greggbyr/common/Documents/MBP_ReCISC/simulator/bench/little/wave5.ss run.wave5
Pre-run wave5
cp /home/greggbyr/common/Documents/MBP_ReCISC/simulator/input/ref/wave5.* .
cp: cannot stat '/home/greggbyr/common/Documents/MBP_ReCISC/simulator/input/ref/wave5.*': No such file or directory
Run wave5
/home/greggbyr/common/Documents/MBP_ReCISC/simulator/ss3/sim-outorder -max:inst 10000000 -bpred mbp -bpred:mbp 1 524288 19 1 524288 run.wave5  < wave5.in > wave5.out
sh: 1: cannot open wave5.in: No such file
****** program returns ERROR 512
Post-run wave5
rm -f -r wave5.* WAVE.*
